Version 4
SHEET 1 1684 920
WIRE 32 80 -64 80
WIRE 624 80 576 80
WIRE 720 80 624 80
WIRE 944 80 800 80
WIRE 576 96 576 80
WIRE -64 112 -64 80
WIRE 32 128 32 80
WIRE 48 128 32 128
WIRE 176 128 128 128
WIRE 800 128 800 80
WIRE 576 160 576 144
WIRE 624 160 576 160
WIRE 704 160 624 160
WIRE 944 160 944 80
WIRE 576 176 576 160
WIRE 576 240 576 224
WIRE 624 240 576 240
WIRE 800 240 800 192
WIRE 800 240 624 240
WIRE 944 240 944 224
WIRE 944 240 800 240
FLAG 176 208 0
FLAG -64 192 0
FLAG 800 240 0
FLAG 704 160 out
IOPIN 704 160 Out
FLAG -64 80 in
IOPIN -64 80 In
SYMBOL ind2 160 112 R0
SYMATTR InstName L1
SYMATTR Value 1µH
SYMATTR Type ind
SYMBOL ind2 704 96 R270
WINDOW 0 32 56 VTop 2
WINDOW 3 4 56 VBottom 2
SYMATTR InstName L2
SYMATTR Value 2.89µH
SYMATTR Type ind
SYMBOL cap 928 160 R0
SYMATTR InstName Ctun
SYMATTR Value {Ctuned}
SYMBOL voltage -64 96 R0
WINDOW 3 24 152 Left 2
WINDOW 123 24 124 Left 2
WINDOW 39 24 152 Left 2
SYMATTR InstName V1
SYMATTR Value ""
SYMATTR Value2 AC 1
SYMBOL cap 784 128 R0
SYMATTR InstName Cpar
SYMATTR Value {Cpar}
SYMBOL res 144 112 R90
WINDOW 0 0 56 VBottom 2
WINDOW 3 32 56 VTop 2
SYMATTR InstName R1
SYMATTR Value 50
SYMBOL g 624 144 R0
WINDOW 3 -290 145 Left 2
SYMATTR InstName G1
SYMATTR Value LAPLACE=+1/(  31171* (({A})^2) * ( (-1) * (S/(2*pi))^4 ) / (299.7meg^4) )
SYMBOL g 624 64 R0
WINDOW 3 -222 -40 Left 2
SYMATTR InstName G2
SYMATTR Value LAPLACE=+1*12000*{dwloop}/({P}*(-S*S/4/(PI^2)/(1meg)^2)^0.25)
TEXT 120 24 Left 2 !K1 L1 L2 {K1}
TEXT -250 292 Left 2 !.ac dec 10000 {lowband} {highband}
TEXT 392 400 Left 2 !.meas AC Vrms MAX (V(out))
TEXT -224 -264 Left 2 !.step param Ctuned 6p 36p 6p
TEXT 392 424 Left 2 !.meas AC Prms MAX (V(out)*I(G1))
TEXT -224 -296 Left 2 !.param Dloop=1.07 dwloop=0.016
TEXT -224 -232 Left 2 !.param lowband=14meg highband=30meg
TEXT -232 -392 Left 2 ;Loop dia, loop wire dia in m\nC variable: min, max, step\nFrequencys
TEXT -216 -112 Left 2 !.param A=pi*Dloop*Dloop/4 P=pi*Dloop
TEXT 464 -360 Left 2 !.param K1=0.036
TEXT 280 -408 Left 2 ;Coupling loop. 1 turn. Placed in opposite to the main loop capacitor.\nFrom INCA software, in case of loops D\\d = 5, and wires D\\d = 3.
TEXT -216 -80 Left 2 !.param Cpar=8.45p*Dloop/2
TEXT -240 368 Left 2 !.ic V(out)=0 V(Cpar)=0 I(L2)=0
TEXT 408 -48 Left 2 ;Laplace implementation of frequency dependent Resistors:\nskin-effect Rloss and radiation loss Rrad
TEXT -232 -456 Left 2 ;Based on ARRL handbook theory and F5RDS and AA5TB excel calculators
